
#######################################################################
#
#                 Cambridge Crystallographic Data Centre
#                                CCDC 
#
#######################################################################
#
# If this CIF has been generated from an entry in the Cambridge 
# Structural Database, then it will include bibliographic, chemical, 
# crystal, experimental, refinement or atomic coordinate data resulting 
# from the CCDC's data processing and validation procedures.
#
#######################################################################

data_DPI_2TEMPO_0m_5
_symmetry_cell_setting           monoclinic
_symmetry_space_group_name_H-M   'P 21/c'
_symmetry_Int_Tables_number      14
_space_group_name_Hall           '-P 2ybc'
loop_
_symmetry_equiv_pos_site_id
_symmetry_equiv_pos_as_xyz
1 x,y,z
2 -x,1/2+y,1/2-z
_cell_length_a                   11.852(8)
_cell_length_b                   10.820(8)
_cell_length_c                   11.711(8)
_cell_angle_alpha                90
_cell_angle_beta                 108.76(2)
_cell_angle_gamma                90
_cell_volume                     1422.02
loop_
_atom_site_label
_atom_site_type_symbol
_atom_site_fract_x
_atom_site_fract_y
_atom_site_fract_z
O1 O 0.2249(2) 0.4000(3) 0.1341(3)
O2 O 0.5011(2) 0.6970(3) 0.3090(2)
N1 N 0.3564(3) 0.5552(3) 0.2165(3)
C1 C 0.3100(3) 0.4613(3) 0.1317(3)
C2 C 0.4616(3) 0.6224(3) 0.2281(3)
C3 C 0.5210(3) 0.5972(3) 0.1360(3)
C4 C 0.4727(3) 0.5102(3) 0.0445(3)
C5 C 0.3695(3) 0.4413(3) 0.0389(3)
C6 C 0.3229(3) 0.3569(3) -0.0517(3)
H6 H 0.253532 0.311373 -0.054322
C7 C 0.3772(3) 0.3378(3) -0.1397(3)
H7 H 0.344107 0.279865 -0.202561
N2 N 0.1367(3) 0.6232(3) 0.4377(3)
O3 O 0.0834(3) 0.6597(3) 0.5124(3)
C8 C 0.2918(4) 0.5908(4) 0.3023(4)
H8 H 0.335336 0.662778 0.350088
C9 C 0.2896(4) 0.4897(4) 0.3920(4)
H9A H 0.370814 0.455834 0.428861
H9B H 0.236822 0.421677 0.349654
C10 C 0.2442(4) 0.5425(4) 0.4909(4)
C11 C 0.1109(4) 0.6983(4) 0.3238(4)
C12 C 0.1628(4) 0.6341(4) 0.2361(3)
H12A H 0.162644 0.691828 0.170470
H12B H 0.112846 0.561954 0.199667
C13 C 0.3418(4) 0.6196(4) 0.5840(4)
H13A H 0.370290 0.684760 0.541909
H13B H 0.408368 0.565647 0.626630
H13C H 0.308207 0.657198 0.642066
C14 C 0.2048(4) 0.4367(4) 0.5552(4)
H14A H 0.132463 0.398865 0.500512
H14B H 0.188420 0.468633 0.626629
H14C H 0.268238 0.374606 0.579961
C15 C 0.1640(4) 0.8284(4) 0.3581(4)
H15A H 0.138860 0.882146 0.287058
H15B H 0.251196 0.822997 0.387643
H15C H 0.135802 0.862720 0.421504
C16 C -0.0237(4) 0.7084(5) 0.2664(4)
H16A H -0.042158 0.749371 0.187862
H16B H -0.056652 0.756753 0.318922
H16C H -0.058800 0.625458 0.255336
O1 O 0.7751(2) 0.6000(3) -0.1341(3)
O2 O 0.4989(2) 0.3030(3) -0.3090(2)
N1 N 0.6436(3) 0.4448(3) -0.2165(3)
C1 C 0.6900(3) 0.5387(3) -0.1317(3)
C2 C 0.5384(3) 0.3776(3) -0.2281(3)
C3 C 0.4790(3) 0.4028(3) -0.1360(3)
C4 C 0.5273(3) 0.4898(3) -0.0445(3)
C5 C 0.6305(3) 0.5587(3) -0.0389(3)
C6 C 0.6771(3) 0.6431(3) 0.0517(3)
H6 H 0.746468 0.688627 0.054322
C7 C 0.6228(3) 0.6622(3) 0.1397(3)
H7 H 0.655893 0.720135 0.202561
N2 N 0.8633(3) 0.3768(3) -0.4377(3)
O3 O 0.9166(3) 0.3403(3) -0.5124(3)
C8 C 0.7082(4) 0.4092(4) -0.3023(4)
H8 H 0.664664 0.337222 -0.350088
C9 C 0.7104(4) 0.5103(4) -0.3920(4)
H9A H 0.629186 0.544166 -0.428861
H9B H 0.763178 0.578323 -0.349654
C10 C 0.7558(4) 0.4575(4) -0.4909(4)
C11 C 0.8891(4) 0.3017(4) -0.3238(4)
C12 C 0.8372(4) 0.3659(4) -0.2361(3)
H12A H 0.837356 0.308172 -0.170470
H12B H 0.887154 0.438046 -0.199667
C13 C 0.6582(4) 0.3804(4) -0.5840(4)
H13A H 0.629710 0.315240 -0.541909
H13B H 0.591632 0.434353 -0.626630
H13C H 0.691793 0.342802 -0.642066
C14 C 0.7952(4) 0.5633(4) -0.5552(4)
H14A H 0.867537 0.601135 -0.500512
H14B H 0.811580 0.531367 -0.626629
H14C H 0.731762 0.625394 -0.579961
C15 C 0.8360(4) 0.1716(4) -0.3581(4)
H15A H 0.861140 0.117854 -0.287058
H15B H 0.748804 0.177003 -0.387643
H15C H 0.864198 0.137280 -0.421504
C16 C 1.0237(4) 0.2916(5) -0.2664(4)
H16A H 1.042158 0.250629 -0.187862
H16B H 1.056652 0.243247 -0.318922
H16C H 1.058800 0.374542 -0.255336

#END
