
#######################################################################
#
#                 Cambridge Crystallographic Data Centre
#                                CCDC 
#
#######################################################################
#
# If this CIF has been generated from an entry in the Cambridge 
# Structural Database, then it will include bibliographic, chemical, 
# crystal, experimental, refinement or atomic coordinate data resulting 
# from the CCDC's data processing and validation procedures.
#
#######################################################################

data_00000001
_symmetry_cell_setting           triclinic
_symmetry_space_group_name_H-M   'P -1'
_symmetry_Int_Tables_number      2
_space_group_name_Hall           '-P 1'
loop_
_symmetry_equiv_pos_site_id
_symmetry_equiv_pos_as_xyz
1 x,y,z
2 -x,-y,-z
_cell_length_a                   5.1776
_cell_length_b                   11.785
_cell_length_c                   20.724
_cell_angle_alpha                91.927
_cell_angle_beta                 93.548
_cell_angle_gamma                91.903
_cell_volume                     1260.61
loop_
_atom_site_label
_atom_site_type_symbol
_atom_site_fract_x
_atom_site_fract_y
_atom_site_fract_z
O1 O 1.28611 -0.271569 0.139519
O2 O 0.377092 0.249058 0.21237
O3 O 0.253501 0.322478 0.116511
O4 O -0.388005 0.589657 0.322732
N1 N 0.930006 -0.114799 0.118852
C1 C 1.3701 -0.404502 0.05484
H1 H 1.5007 -0.429896 0.0870009
H2 H 1.455 -0.379903 0.0165013
H3 H 1.2463 -0.467401 0.0426007
C2 C 1.22881 -0.306601 0.083392
C3 C 1.02909 -0.258397 0.0425378
H4 H 0.990904 -0.292302 0.000701464
C4 C 0.891397 -0.167102 0.0602679
C5 C 0.684802 -0.122 0.0150307
H5 H 0.607307 -0.0565979 0.0359005
H6 H 0.550799 -0.181504 0.00440229
H7 H 0.761301 -0.0983975 -0.0247012
C6 C 0.789602 -0.0193965 0.141159
C7 C 0.609005 -0.0349978 0.185951
H8 H 0.578095 -0.108396 0.202002
C8 C 0.471807 0.0554033 0.207832
H9 H 0.347694 0.0444029 0.239098
C9 C 0.51521 0.161 0.184282
C10 C 0.694599 0.178398 0.139291
H10 H 0.723397 0.251501 0.122601
C11 C 0.832295 0.0868964 0.118818
H11 H 0.959904 0.0981961 0.088399
C12 C 0.243496 0.322298 0.174341
C13 C 0.084696 0.395603 0.213569
C14 C 0.0805988 0.387597 0.280329
H12 H 0.189793 0.336096 0.302099
C15 C -0.0780055 0.4528 0.314788
H13 H -0.0786954 0.446303 0.360301
C16 C -0.240001 0.529201 0.283561
C17 C -0.239998 0.538697 0.21713
H14 H -0.349808 0.590098 0.195399
C18 C -0.0758919 0.471399 0.182831
H15 H -0.0740048 0.477699 0.137298
C19 C -0.560701 0.670596 0.29386
H16 H -0.695392 0.630797 0.264699
H17 H -0.462996 0.725099 0.2684
C20 C -0.682304 0.731696 0.347878
H18 H -0.543797 0.764997 0.378602
H19 H -0.785103 0.676197 0.371399
C21 C -0.856706 0.8254 0.3253
H20 H -0.759605 0.876197 0.2976
H21 H -1.0064 0.791102 0.298698
C22 C -0.955102 0.895203 0.380682
H22 H -0.804096 0.9278 0.407498
H23 H -1.05209 0.843702 0.408102
C23 C -1.12809 0.991102 0.361269
H24 H -1.03271 1.0426 0.333602
H25 H -1.28139 0.9589 0.335198
C24 C -1.2189 1.0595 0.41786
H26 H -1.3129 1.0075 0.445498
H27 H -1.0648 1.0913 0.443901
C25 C -1.3914 1.1554 0.400628
H28 H -1.54681 1.1241 0.374998
H29 H -1.2983 1.2078 0.373
C26 C -1.47771 1.2224 0.45929
H30 H -1.56949 1.1694 0.486899
H31 H -1.3216 1.2532 0.484799
C27 C -1.64959 1.3181 0.444158
H32 H -1.80379 1.2882 0.417502
H33 H -1.55621 1.3731 0.418102
C28 C -1.73781 1.3796 0.503729
H34 H -1.84939 1.4414 0.490599
H35 H -1.58639 1.411 0.529901
H36 H -1.83459 1.3262 0.529199
H37 H 1.062 -0.150001 0.149102

#END
