
#######################################################################
#
#                 Cambridge Crystallographic Data Centre
#                                CCDC 
#
#######################################################################
#
# If this CIF has been generated from an entry in the Cambridge 
# Structural Database, then it will include bibliographic, chemical, 
# crystal, experimental, refinement or atomic coordinate data resulting 
# from the CCDC's data processing and validation procedures.
#
#######################################################################

data_TEMPO_BPCN_0m
_symmetry_cell_setting           monoclinic
_symmetry_space_group_name_H-M   'P 21/c'
_symmetry_Int_Tables_number      14
_space_group_name_Hall           '-P 2ybc'
loop_
_symmetry_equiv_pos_site_id
_symmetry_equiv_pos_as_xyz
1 x,y,z
2 -x,1/2+y,1/2-z
3 -x,-y,-z
4 x,1/2-y,1/2+z
_cell_length_a                   5.7133(2)
_cell_length_b                   14.6300(5)
_cell_length_c                   24.2238(8)
_cell_angle_alpha                90
_cell_angle_beta                 92.2271(19)
_cell_angle_gamma                90
_cell_volume                     2023.23
loop_
_atom_site_label
_atom_site_type_symbol
_atom_site_fract_x
_atom_site_fract_y
_atom_site_fract_z
_atom_site_U_iso_or_equiv
_atom_site_thermal_displace_type
O1 O 0.71223(16) 1.04954(6) 0.13964(4) 0.0335 Uani
O2 O 0.8315(2) 0.91724(7) 0.10388(4) 0.0457 Uani
O3 O -0.00112(15) 0.80773(6) 0.25901(4) 0.0318 Uani
N1 N 0.16009(16) 0.84361(6) 0.23037(4) 0.0226 Uani
N2 N 1.8611(2) 1.51560(8) -0.08496(5) 0.0381 Uani
C1 C 0.7129(2) 0.95767(8) 0.13526(5) 0.0271 Uani
C2 C 0.56159(19) 0.91231(8) 0.17708(5) 0.0238 Uani
H2 H 0.668231 0.881545 0.205025 0.0290 Uiso
C3 C 0.4089(2) 0.83826(8) 0.14916(5) 0.0254 Uani
H3A H 0.294693 0.867516 0.122938 0.0300 Uiso
H3B H 0.509309 0.797311 0.127764 0.0300 Uiso
C4 C 0.2762(2) 0.78130(8) 0.19081(5) 0.0258 Uani
C5 C 0.27070(19) 0.92875(8) 0.25328(5) 0.0241 Uani
C6 C 0.4043(2) 0.97685(8) 0.20802(5) 0.0251 Uani
H6A H 0.290306 1.005265 0.181392 0.0300 Uiso
H6B H 0.501161 1.026312 0.224925 0.0300 Uiso
C7 C 0.4394(2) 0.71493(9) 0.22283(6) 0.0357 Uani
H7A H 0.488382 0.666167 0.198052 0.0540 Uiso
H7B H 0.356258 0.688209 0.253565 0.0540 Uiso
H7C H 0.577707 0.748040 0.237293 0.0540 Uiso
C8 C 0.0834(2) 0.72695(9) 0.16021(6) 0.0361 Uani
H8A H -0.027453 0.769230 0.141820 0.0540 Uiso
H8B H 0.000814 0.689189 0.186613 0.0540 Uiso
H8C H 0.153149 0.687546 0.132560 0.0540 Uiso
C9 C 0.4310(2) 0.90418(11) 0.30341(5) 0.0381 Uani
H9A H 0.566414 0.869704 0.291082 0.0570 Uiso
H9B H 0.343966 0.866831 0.329206 0.0570 Uiso
H9C H 0.484850 0.960332 0.321943 0.0570 Uiso
C10 C 0.0761(2) 0.99163(9) 0.27200(6) 0.0326 Uani
H10A H -0.036331 1.002375 0.241093 0.0490 Uiso
H10B H 0.143772 1.050015 0.284397 0.0490 Uiso
H10C H -0.004148 0.962879 0.302527 0.0490 Uiso
C11 C 0.8659(2) 1.10169(8) 0.10829(5) 0.0294 Uani
C12 C 0.8796(2) 1.09240(9) 0.05163(5) 0.0338 Uani
H12 H 0.788670 1.047645 0.032130 0.0400 Uiso
C13 C 1.0287(2) 1.14980(9) 0.02386(5) 0.0324 Uani
H13 H 1.040455 1.143612 -0.014971 0.0390 Uiso
C14 C 1.1618(2) 1.21650(8) 0.05195(5) 0.0262 Uani
C15 C 1.1396(2) 1.22512(8) 0.10885(5) 0.0285 Uani
H15 H 1.226449 1.270852 0.128509 0.0340 Uiso
C16 C 0.9922(2) 1.16780(8) 0.13714(5) 0.0295 Uani
H16 H 0.978503 1.173988 0.175922 0.0350 Uiso
C17 C 1.3171(2) 1.27903(8) 0.02203(5) 0.0250 Uani
C18 C 1.2459(2) 1.31433(9) -0.02953(5) 0.0281 Uani
H18 H 1.100020 1.295776 -0.046042 0.0340 Uiso
C20 C 1.5335(2) 1.30624(8) 0.04518(5) 0.0282 Uani
H20 H 1.585056 1.282226 0.079998 0.0340 Uiso
C21 C 1.6742(2) 1.36757(9) 0.01836(5) 0.0290 Uani
H21 H 1.820642 1.385758 0.034743 0.0350 Uiso
C22 C 1.5993(2) 1.40251(8) -0.03297(5) 0.0261 Uani
C23 C 1.3840(2) 1.37582(9) -0.05694(5) 0.0290 Uani
H23 H 1.332742 1.399679 -0.091825 0.0350 Uiso
C24 C 1.7449(2) 1.46620(8) -0.06153(5) 0.0291 Uani
loop_
_atom_site_aniso_label
_atom_site_aniso_U_11
_atom_site_aniso_U_22
_atom_site_aniso_U_33
_atom_site_aniso_U_23
_atom_site_aniso_U_13
_atom_site_aniso_U_12
O1 0.0431(5) 0.0248(4) 0.0339(5) -0.0003(4) 0.0163(4) -0.0070(4)
O2 0.0592(7) 0.0305(5) 0.0497(6) 0.0046(4) 0.0307(5) 0.0063(4)
O3 0.0235(4) 0.0328(5) 0.0396(5) 0.0080(4) 0.0083(4) -0.0040(3)
N1 0.0182(4) 0.0226(5) 0.0272(5) 0.0034(4) 0.0033(4) -0.0012(4)
N2 0.0391(6) 0.0367(6) 0.0389(6) 0.0034(5) 0.0080(5) -0.0083(5)
C1 0.0288(6) 0.0239(6) 0.0291(6) 0.0009(5) 0.0070(5) 0.0005(5)
C2 0.0236(5) 0.0220(5) 0.0260(6) 0.0014(4) 0.0043(4) -0.0004(4)
C3 0.0261(6) 0.0226(5) 0.0277(6) -0.0027(4) 0.0046(5) 0.0003(4)
C4 0.0229(5) 0.0190(5) 0.0357(6) -0.0006(5) 0.0035(5) 0.0007(4)
C5 0.0217(5) 0.0269(6) 0.0238(6) -0.0024(4) 0.0026(4) -0.0032(4)
C6 0.0253(5) 0.0218(5) 0.0286(6) -0.0020(4) 0.0061(5) -0.0023(4)
C7 0.0289(6) 0.0253(6) 0.0534(8) 0.0105(6) 0.0071(6) 0.0044(5)
C8 0.0314(6) 0.0260(6) 0.0511(8) -0.0092(6) 0.0024(6) -0.0044(5)
C9 0.0311(7) 0.0568(9) 0.0263(6) 0.0015(6) -0.0017(5) -0.0050(6)
C10 0.0291(6) 0.0339(6) 0.0353(7) -0.0091(5) 0.0092(5) -0.0029(5)
C11 0.0349(6) 0.0238(6) 0.0302(6) 0.0022(5) 0.0107(5) -0.0042(5)
C12 0.0426(7) 0.0291(6) 0.0299(6) -0.0022(5) 0.0059(5) -0.0112(5)
C13 0.0426(7) 0.0310(6) 0.0240(6) -0.0016(5) 0.0073(5) -0.0070(5)
C14 0.0294(6) 0.0234(5) 0.0263(6) 0.0006(4) 0.0059(5) -0.0007(5)
C15 0.0337(6) 0.0258(6) 0.0263(6) -0.0010(5) 0.0043(5) -0.0050(5)
C16 0.0387(7) 0.0272(6) 0.0232(6) -0.0003(5) 0.0073(5) -0.0032(5)
C17 0.0276(6) 0.0222(5) 0.0258(6) -0.0009(4) 0.0076(4) -0.0003(4)
C18 0.0272(6) 0.0311(6) 0.0263(6) -0.0001(5) 0.0036(5) -0.0042(5)
C20 0.0286(6) 0.0285(6) 0.0277(6) 0.0030(5) 0.0023(5) 0.0014(5)
C21 0.0246(6) 0.0301(6) 0.0325(6) -0.0006(5) 0.0028(5) -0.0009(5)
C22 0.0266(6) 0.0220(5) 0.0304(6) -0.0006(4) 0.0092(5) -0.0006(4)
C23 0.0311(6) 0.0309(6) 0.0253(6) 0.0028(5) 0.0044(5) -0.0011(5)
C24 0.0293(6) 0.0268(6) 0.0317(6) -0.0016(5) 0.0058(5) -0.0011(5)

#END
