
#######################################################################
#
#                 Cambridge Crystallographic Data Centre
#                                CCDC 
#
#######################################################################
#
# If this CIF has been generated from an entry in the Cambridge 
# Structural Database, then it will include bibliographic, chemical, 
# crystal, experimental, refinement or atomic coordinate data resulting 
# from the CCDC's data processing and validation procedures.
#
#######################################################################

data_BEWPEY
_symmetry_cell_setting           triclinic
_symmetry_space_group_name_H-M   'P -1'
_symmetry_Int_Tables_number      2
_space_group_name_Hall           '-P 1'
loop_
_symmetry_equiv_pos_site_id
_symmetry_equiv_pos_as_xyz
1 x,y,z
2 -x,-y,-z
_cell_length_a                   5.452(3)
_cell_length_b                   7.948(4)
_cell_length_c                   27.356(4)
_cell_angle_alpha                90.83(2)
_cell_angle_beta                 86.43(2)
_cell_angle_gamma                108.14(2)
_cell_volume                     1124.29
loop_
_atom_site_label
_atom_site_type_symbol
_atom_site_fract_x
_atom_site_fract_y
_atom_site_fract_z
C1 C -0.38110 0.31210 -0.35120
C2 C -0.48010 0.24500 -0.30010
C3 C -0.27400 0.31090 -0.26540
C4 C -0.37580 0.24440 -0.21070
C5 C -0.14520 0.29690 -0.17370
C6 C -0.23370 0.23110 -0.12310
C7 C -0.01940 0.29490 -0.08840
C8 C -0.09600 0.23560 -0.03660
O1 O 0.12930 0.30520 -0.01000
C9 C 0.11650 0.27010 0.03920
C10 C -0.10400 0.17340 0.06650
C11 C -0.08980 0.15170 0.11570
C12 C 0.13720 0.22390 0.13960
C13 C 0.35630 0.32440 0.11160
C14 C 0.34490 0.34600 0.06250
C15 C 0.14820 0.19940 0.19230
N1 N 0.35490 0.25130 0.21350
C16 C 0.35890 0.22520 0.26450
C17 C 0.15670 0.12480 0.29510
C18 C 0.18470 0.10680 0.34400
C19 C 0.41570 0.19010 0.36530
C20 C 0.61730 0.28940 0.33560
C21 C 0.59320 0.30720 0.28560
C22 C 0.44090 0.17090 0.41960
C23 C 0.27170 0.25170 0.45190
C24 C 0.29660 0.23220 0.50700
C25 C 0.11860 0.30800 0.53840
H1 H -0.51170 0.26300 -0.37420
H2 H -0.23200 0.27730 -0.36200
H3 H -0.33970 0.45060 -0.35120
H4 H -0.53220 0.10750 -0.29670
H5 H -0.64120 0.28860 -0.28530
H6 H -0.25850 0.42560 -0.25180
H7 H -0.18410 0.25900 -0.26700
H8 H -0.30590 0.17720 -0.24040
H9 H -0.48290 0.14880 -0.18330
H10 H -0.01940 0.23580 -0.19400
H11 H -0.13680 0.41580 -0.18590
H12 H -0.29150 0.10020 -0.12270
H13 H -0.37920 0.27030 -0.11130
H14 H 0.03030 0.42860 -0.08880
H15 H 0.12100 0.25660 -0.09820
H16 H -0.15030 0.10430 -0.03430
H17 H -0.23070 0.28760 -0.02350
H18 H -0.26950 0.11280 0.05040
H19 H -0.24180 0.08360 0.13630
H20 H 0.51430 0.37840 0.13270
H21 H 0.48880 0.41230 0.04290
H22 H -0.03080 0.15250 0.19360
H23 H -0.00410 0.06130 0.28000
H24 H 0.03770 0.03960 0.36690
H25 H 0.78610 0.35540 0.35160
H26 H 0.73120 0.37920 0.26260
H27 H 0.40520 0.03790 0.43360
H28 H 0.61800 0.22500 0.42600
H29 H 0.31240 0.39790 0.44160
H30 H 0.10100 0.20790 0.44300
H31 H 0.47590 0.29990 0.51460
H32 H 0.26840 0.10530 0.51330
H33 H 0.13610 0.29470 0.57400
H34 H -0.05700 0.23750 0.53070
H35 H 0.13810 0.44030 0.53090

#END
