
#######################################################################
#
#                 Cambridge Crystallographic Data Centre
#                                CCDC 
#
#######################################################################
#
# If this CIF has been generated from an entry in the Cambridge 
# Structural Database, then it will include bibliographic, chemical, 
# crystal, experimental, refinement or atomic coordinate data resulting 
# from the CCDC's data processing and validation procedures.
#
#######################################################################

data_C6BP_TEMPO_0m
_symmetry_cell_setting           triclinic
_symmetry_space_group_name_H-M   'P -1'
_symmetry_Int_Tables_number      2
_space_group_name_Hall           '-P 1'
loop_
_symmetry_equiv_pos_site_id
_symmetry_equiv_pos_as_xyz
1 x,y,z
2 -x,-y,-z
_cell_length_a                   5.6017(3)
_cell_length_b                   8.0854(5)
_cell_length_c                   27.3009(18)
_cell_angle_alpha                82.667(3)
_cell_angle_beta                 87.626(3)
_cell_angle_gamma                81.944(4)
_cell_volume                     1213.95
loop_
_atom_site_label
_atom_site_type_symbol
_atom_site_fract_x
_atom_site_fract_y
_atom_site_fract_z
_atom_site_U_iso_or_equiv
_atom_site_thermal_displace_type
O1 O 0.8895(2) 1.01638(14) 0.18114(4) 0.0269 Uani
O2 O 0.8965(3) 1.22706(18) 0.22692(5) 0.0418 Uani
O3 O 1.6303(2) 1.42464(16) 0.05724(5) 0.0273 Uani
N1 N 1.4672(2) 1.36662(16) 0.08645(5) 0.0195 Uani
C1 C 0.7519(3) 0.64200(19) 0.26069(6) 0.0227 Uani
H1 H 0.823365 0.528466 0.268488 0.0270 Uiso
C2 C 0.8749(3) 0.7530(2) 0.22971(6) 0.0235 Uani
H2 H 1.030034 0.715949 0.216545 0.0280 Uiso
C3 C 0.7698(3) 0.91841(19) 0.21814(6) 0.0210 Uani
C4 C 0.5491(3) 0.97697(19) 0.23867(6) 0.0221 Uani
H4 H 0.482302 1.091884 0.231792 0.0260 Uiso
C5 C 0.4266(3) 0.86490(19) 0.26956(6) 0.0211 Uani
H5 H 0.274054 0.903843 0.283503 0.0250 Uiso
C6 C 0.5248(3) 0.69493(19) 0.28051(6) 0.0196 Uani
C7 C 0.3810(3) 0.57456(19) 0.30998(6) 0.0203 Uani
C8 C 0.2252(3) 0.6218(2) 0.34883(6) 0.0265 Uani
H8 H 0.221592 0.730379 0.358878 0.0320 Uiso
C9 C 0.0765(3) 0.5123(2) 0.37277(6) 0.0278 Uani
H9 H -0.027961 0.547801 0.398847 0.0330 Uiso
C10 C 0.0763(3) 0.3507(2) 0.35952(6) 0.0233 Uani
C11 C 0.2379(3) 0.3026(2) 0.32206(6) 0.0247 Uani
H11 H 0.245821 0.192524 0.312882 0.0300 Uiso
C12 C 0.3878(3) 0.4114(2) 0.29777(6) 0.0237 Uani
H12 H 0.496349 0.374344 0.272509 0.0280 Uiso
C13 C -0.0986(4) 0.2385(2) 0.38519(7) 0.0285 Uani
H13A H -0.261935 0.303824 0.384830 0.0340 Uiso
H13B H -0.052784 0.208248 0.420157 0.0340 Uiso
C14 C -0.1103(4) 0.0774(2) 0.36276(7) 0.0299 Uani
H14A H 0.050416 0.008463 0.364836 0.0360 Uiso
H14B H -0.148159 0.106704 0.327347 0.0360 Uiso
C15 C -0.2979(4) -0.0284(2) 0.38780(7) 0.0308 Uani
H15A H -0.455479 0.044161 0.388475 0.0370 Uiso
H15B H -0.314879 -0.118687 0.367401 0.0370 Uiso
C16 C -0.2404(3) -0.1087(2) 0.44024(7) 0.0283 Uani
H16A H -0.231591 -0.018826 0.461305 0.0340 Uiso
H16B H -0.080177 -0.178205 0.440076 0.0340 Uiso
C17 C -0.4271(4) -0.2185(2) 0.46252(7) 0.0353 Uani
H17A H -0.586117 -0.147955 0.463781 0.0420 Uiso
H17B H -0.440305 -0.305589 0.440731 0.0420 Uiso
C18 C -0.3663(5) -0.3044(3) 0.51423(8) 0.0494 Uani
H18A H -0.211576 -0.377572 0.513116 0.0740 Uiso
H18B H -0.492994 -0.372080 0.526718 0.0740 Uiso
H18C H -0.355096 -0.218994 0.536157 0.0740 Uiso
C19 C 0.9438(3) 1.16866(19) 0.18907(6) 0.0207 Uani
C20 C 1.0677(3) 1.25213(18) 0.14395(6) 0.0181 Uani
H20 H 0.941777 1.302191 0.119408 0.0220 Uiso
C21 C 1.1915(3) 1.39387(19) 0.15884(6) 0.0200 Uani
H21A H 1.310874 1.345797 0.184363 0.0240 Uiso
H21B H 1.069335 1.474263 0.173889 0.0240 Uiso
C22 C 1.3203(3) 1.49041(19) 0.11596(6) 0.0200 Uani
C23 C 1.1424(3) 1.6107(2) 0.08218(7) 0.0271 Uani
H23A H 1.228281 1.653972 0.052316 0.0410 Uiso
H23B H 1.070776 1.704766 0.099714 0.0410 Uiso
H23C H 1.014749 1.549948 0.072967 0.0410 Uiso
C24 C 1.4935(3) 1.5917(2) 0.13712(7) 0.0276 Uani
H24A H 1.573134 1.656539 0.110022 0.0410 Uiso
H24B H 1.615289 1.514713 0.156545 0.0410 Uiso
H24C H 1.403251 1.668764 0.158378 0.0410 Uiso
C25 C 1.2514(3) 1.12781(19) 0.11932(6) 0.0191 Uani
H25A H 1.167645 1.038058 0.109227 0.0230 Uiso
H25B H 1.373378 1.074289 0.143753 0.0230 Uiso
C26 C 1.3802(3) 1.21042(19) 0.07395(6) 0.0191 Uani
C27 C 1.2157(3) 1.2547(2) 0.02912(6) 0.0246 Uani
H27A H 1.295939 1.322075 0.002711 0.0370 Uiso
H27B H 1.063605 1.319244 0.038792 0.0370 Uiso
H27C H 1.182805 1.150848 0.017289 0.0370 Uiso
C28 C 1.6010(3) 1.0888(2) 0.06068(7) 0.0252 Uani
H28A H 1.550305 0.981525 0.055256 0.0380 Uiso
H28B H 1.714780 1.069785 0.087793 0.0380 Uiso
H28C H 1.679260 1.137247 0.030502 0.0380 Uiso
